docs/samples/resources/test_lines.xiidm
<?xml version="1.0" encoding="UTF-8"?>
<iidm:network xmlns:iidm="http://www.itesla_project.eu/schema/iidm/1_0" id="Network_2Lines_Example" caseDate="2018-09-10T14:38:11.828Z" forecastDistance="0" sourceFormat="csv">
    <iidm:substation id="P1" country="FR">
        <iidm:voltageLevel id="VLHV1" nominalV="220.0" topologyKind="BUS_BREAKER">
            <iidm:busBreakerTopology>
                <iidm:bus id="NHV1"/>
            </iidm:busBreakerTopology>
        </iidm:voltageLevel>
    </iidm:substation>
    <iidm:substation id="P2" country="FR">
        <iidm:voltageLevel id="VLHV2" nominalV="220.0" topologyKind="BUS_BREAKER">
            <iidm:busBreakerTopology>
                <iidm:bus id="NHV2"/>
            </iidm:busBreakerTopology>
        </iidm:voltageLevel>
    </iidm:substation>
    <iidm:line id="NHV1_NHV2_1" r="3.0" x="33.0" g1="0.0" b1="1.93E-4" g2="0.0" b2="1.93E-4" bus1="NHV1" connectableBus1="NHV1" voltageLevelId1="VLHV1" bus2="NHV2" connectableBus2="NHV2"
 voltageLevelId2="VLHV2"/>
    <iidm:line id="NHV1_NHV2_2" r="3.0" x="32.0" g1="0.0" b1="1.75E-4" g2="0.0" b2="1.75E-4" bus1="NHV1" connectableBus1="NHV1" voltageLevelId1="VLHV1" bus2="NHV2" connectableBus2="NHV2"
 voltageLevelId2="VLHV2"/>
</iidm:network>
